
OS:Version,
  {a6c2cca2-b893-4594-af68-fdad1e7cdf5c}, !- Handle
  2.9.1;                                  !- Version Identifier

OS:Site,
  {08fe97c7-7aa8-4cbc-8044-0c148f4ac403}, !- Handle
  Buffalo Niagara Intl Ap,                !- Name
  42.93,                                  !- Latitude {deg}
  -78.73,                                 !- Longitude {deg}
  -5,                                     !- Time Zone {hr}
  215,                                    !- Elevation {m}
  ;                                       !- Terrain

OS:YearDescription,
  {06024828-311c-45c4-a655-ad499c7a880c}, !- Handle
  ,                                       !- Calendar Year
  Sunday;                                 !- Day of Week for Start Day

OS:ClimateZones,
  {b8c6cd1d-0764-4515-b132-5bf84cdedcf9}, !- Handle
  ,                                       !- Active Institution
  ,                                       !- Active Year
  ,                                       !- Climate Zone Institution Name 1
  ,                                       !- Climate Zone Document Name 1
  ,                                       !- Climate Zone Document Year 1
  ,                                       !- Climate Zone Value 1
  CEC,                                    !- Climate Zone Institution Name 2
  California Climate Zone Descriptions,   !- Climate Zone Document Name 2
  1995,                                   !- Climate Zone Document Year 2
  ;                                       !- Climate Zone Value 2

OS:Building,
  {32554193-d53a-49d9-8c38-dc641a233cb1}, !- Handle
  Building 1,                             !- Name
  ,                                       !- Building Sector Type
  ,                                       !- North Axis {deg}
  ,                                       !- Nominal Floor to Floor Height {m}
  ,                                       !- Space Type Name
  ,                                       !- Default Construction Set Name
  ;                                       !- Default Schedule Set Name

OS:Facility,
  {c6239a45-1a19-4fcc-8205-6d780eb4255e}; !- Handle

OS:SimulationControl,
  {4db17e4b-6232-4198-9154-4a92be358e95}; !- Handle

OS:Sizing:Parameters,
  {e71de744-2130-4d42-aed6-1afeefe3b30c}, !- Handle
  1.25,                                   !- Heating Sizing Factor
  1.15;                                   !- Cooling Sizing Factor

OS:Timestep,
  {da59f59c-02fb-492d-bd7f-464076dd11bf}, !- Handle
  6;                                      !- Number of Timesteps per Hour

OS:ShadowCalculation,
  {371a7573-a85b-4442-bec5-833934516aab}, !- Handle
  20,                                     !- Calculation Frequency
  15000;                                  !- Maximum Figures in Shadow Overlap Calculations

OS:HeatBalanceAlgorithm,
  {fcb932e4-b75f-40b3-96b4-f80f732f5fad}, !- Handle
  ConductionTransferFunction,             !- Algorithm
  200;                                    !- Surface Temperature Upper Limit {C}

OS:RunPeriod,
  {d26d1179-836f-478c-97b4-4fe8a131eb67}, !- Handle
  Run Period 1,                           !- Name
  1,                                      !- Begin Month
  1,                                      !- Begin Day of Month
  12,                                     !- End Month
  31,                                     !- End Day of Month
  ,                                       !- Use Weather File Holidays and Special Days
  ,                                       !- Use Weather File Daylight Saving Period
  ,                                       !- Apply Weekend Holiday Rule
  ,                                       !- Use Weather File Rain Indicators
  ,                                       !- Use Weather File Snow Indicators
  ;                                       !- Number of Times Runperiod to be Repeated

OS:LifeCycleCost:Parameters,
  {281682a1-ab6b-4356-9fd0-c7f5a7305913}, !- Handle
  ,                                       !- Analysis Type
  ,                                       !- Discounting Convention
  ,                                       !- Inflation Approach
  ,                                       !- Real Discount Rate
  ,                                       !- Nominal Discount Rate
  ,                                       !- Inflation
  ,                                       !- Base Date Month
  ,                                       !- Base Date Year
  ,                                       !- Service Date Month
  ,                                       !- Service Date Year
  ;                                       !- Length of Study Period in Years

OS:Space,
  {8f5da31b-5982-4f61-a764-7e1ad079fcb1}, !- Handle
  Space 201,                              !- Name
  {eab063cb-9ba8-4008-9dab-c8acb72b5b12}, !- Space Type Name
  ,                                       !- Default Construction Set Name
  ,                                       !- Default Schedule Set Name
  ,                                       !- Direction of Relative North {deg}
  ,                                       !- X Origin {m}
  ,                                       !- Y Origin {m}
  ,                                       !- Z Origin {m}
  {f9862944-9b08-4a4b-9404-38119b05f3cf}, !- Building Story Name
  ,                                       !- Thermal Zone Name
  ,                                       !- Part of Total Floor Area
  ,                                       !- Design Specification Outdoor Air Object Name
  ;                                       !- Building Unit Name

OS:Surface,
  {4d6a8aff-4c36-43ea-825d-9b4679ffda04}, !- Handle
  Face 176,                               !- Name
  Floor,                                  !- Surface Type
  ,                                       !- Construction Name
  {8f5da31b-5982-4f61-a764-7e1ad079fcb1}, !- Space Name
  Surface,                                !- Outside Boundary Condition
  {dbad6c8b-ffc1-4a60-aa22-85f50ed0a300}, !- Outside Boundary Condition Object
  NoSun,                                  !- Sun Exposure
  NoWind,                                 !- Wind Exposure
  ,                                       !- View Factor to Ground
  ,                                       !- Number of Vertices
  0, 24.384, 3.6576,                      !- X,Y,Z Vertex 1 {m}
  4.572, 19.812, 3.6576,                  !- X,Y,Z Vertex 2 {m}
  4.572, 14.9352, 3.6576,                 !- X,Y,Z Vertex 3 {m}
  4.572, 9.4488, 3.6576,                  !- X,Y,Z Vertex 4 {m}
  4.572, 4.572, 3.6576,                   !- X,Y,Z Vertex 5 {m}
  0, 0, 3.6576;                           !- X,Y,Z Vertex 6 {m}

OS:Surface,
  {f12b1a96-edbc-4026-b97e-69d5f7bd69e5}, !- Handle
  Face 178,                               !- Name
  Wall,                                   !- Surface Type
  ,                                       !- Construction Name
  {8f5da31b-5982-4f61-a764-7e1ad079fcb1}, !- Space Name
  Surface,                                !- Outside Boundary Condition
  {76d9ebd9-0851-4941-a3e4-5b9ba59d5052}, !- Outside Boundary Condition Object
  NoSun,                                  !- Sun Exposure
  NoWind,                                 !- Wind Exposure
  ,                                       !- View Factor to Ground
  ,                                       !- Number of Vertices
  0, 24.384, 7.3152,                      !- X,Y,Z Vertex 1 {m}
  4.572, 19.812, 7.3152,                  !- X,Y,Z Vertex 2 {m}
  4.572, 19.812, 3.6576,                  !- X,Y,Z Vertex 3 {m}
  0, 24.384, 3.6576;                      !- X,Y,Z Vertex 4 {m}

OS:Surface,
  {299e9369-53a2-4a79-bab1-aec6a056d519}, !- Handle
  Face 181,                               !- Name
  Wall,                                   !- Surface Type
  ,                                       !- Construction Name
  {8f5da31b-5982-4f61-a764-7e1ad079fcb1}, !- Space Name
  Surface,                                !- Outside Boundary Condition
  {078de00a-61f4-4983-a153-c1adc1e4f3d0}, !- Outside Boundary Condition Object
  NoSun,                                  !- Sun Exposure
  NoWind,                                 !- Wind Exposure
  ,                                       !- View Factor to Ground
  ,                                       !- Number of Vertices
  4.572, 9.4488, 7.3152,                  !- X,Y,Z Vertex 1 {m}
  4.572, 4.572, 7.3152,                   !- X,Y,Z Vertex 2 {m}
  4.572, 4.572, 3.6576,                   !- X,Y,Z Vertex 3 {m}
  4.572, 9.4488, 3.6576;                  !- X,Y,Z Vertex 4 {m}

OS:Surface,
  {361aed80-0ba1-4f78-a389-ee1835f0b195}, !- Handle
  Face 182,                               !- Name
  Wall,                                   !- Surface Type
  ,                                       !- Construction Name
  {8f5da31b-5982-4f61-a764-7e1ad079fcb1}, !- Space Name
  Surface,                                !- Outside Boundary Condition
  {8c1cddd3-1d14-4a4e-9efb-f3de7dd56468}, !- Outside Boundary Condition Object
  NoSun,                                  !- Sun Exposure
  NoWind,                                 !- Wind Exposure
  ,                                       !- View Factor to Ground
  ,                                       !- Number of Vertices
  4.572, 4.572, 7.3152,                   !- X,Y,Z Vertex 1 {m}
  0, 0, 7.3152,                           !- X,Y,Z Vertex 2 {m}
  0, 0, 3.6576,                           !- X,Y,Z Vertex 3 {m}
  4.572, 4.572, 3.6576;                   !- X,Y,Z Vertex 4 {m}

OS:Surface,
  {413448ef-68c9-47b5-ad8f-692a56a0c29c}, !- Handle
  Face 183,                               !- Name
  Wall,                                   !- Surface Type
  ,                                       !- Construction Name
  {8f5da31b-5982-4f61-a764-7e1ad079fcb1}, !- Space Name
  Outdoors,                               !- Outside Boundary Condition
  ,                                       !- Outside Boundary Condition Object
  SunExposed,                             !- Sun Exposure
  WindExposed,                            !- Wind Exposure
  ,                                       !- View Factor to Ground
  ,                                       !- Number of Vertices
  0, 0, 7.3152,                           !- X,Y,Z Vertex 1 {m}
  0, 24.384, 7.3152,                      !- X,Y,Z Vertex 2 {m}
  0, 24.384, 3.6576,                      !- X,Y,Z Vertex 3 {m}
  0, 0, 3.6576;                           !- X,Y,Z Vertex 4 {m}

OS:SubSurface,
  {245be286-1fbc-411e-bd27-b275704ccdb5}, !- Handle
  Face 184,                               !- Name
  FixedWindow,                            !- Sub Surface Type
  ,                                       !- Construction Name
  {413448ef-68c9-47b5-ad8f-692a56a0c29c}, !- Surface Name
  ,                                       !- Outside Boundary Condition Object
  ,                                       !- View Factor to Ground
  ,                                       !- Shading Control Name
  ,                                       !- Frame and Divider Name
  ,                                       !- Multiplier
  ,                                       !- Number of Vertices
  0, 24.3586, 5.67157077244259,           !- X,Y,Z Vertex 1 {m}
  0, 24.3586, 4.572,                      !- X,Y,Z Vertex 2 {m}
  0, 0.0253999999999976, 4.572,           !- X,Y,Z Vertex 3 {m}
  0, 0.0253999999999976, 5.67157077244259; !- X,Y,Z Vertex 4 {m}

OS:Surface,
  {1bc1ae89-929a-433d-b7a3-690d8e80fa79}, !- Handle
  Face 179,                               !- Name
  Wall,                                   !- Surface Type
  ,                                       !- Construction Name
  {8f5da31b-5982-4f61-a764-7e1ad079fcb1}, !- Space Name
  Surface,                                !- Outside Boundary Condition
  {de34545f-4b4e-465f-b73a-cda3d3dc8f03}, !- Outside Boundary Condition Object
  NoSun,                                  !- Sun Exposure
  NoWind,                                 !- Wind Exposure
  ,                                       !- View Factor to Ground
  ,                                       !- Number of Vertices
  4.572, 19.812, 7.3152,                  !- X,Y,Z Vertex 1 {m}
  4.572, 14.9352, 7.3152,                 !- X,Y,Z Vertex 2 {m}
  4.572, 14.9352, 3.6576,                 !- X,Y,Z Vertex 3 {m}
  4.572, 19.812, 3.6576;                  !- X,Y,Z Vertex 4 {m}

OS:Surface,
  {8ce02b04-fa48-4ac5-878e-e3eb93a1d6a1}, !- Handle
  Face 180,                               !- Name
  Wall,                                   !- Surface Type
  ,                                       !- Construction Name
  {8f5da31b-5982-4f61-a764-7e1ad079fcb1}, !- Space Name
  Surface,                                !- Outside Boundary Condition
  {337dc4cb-cd13-4277-a23d-80abaf861771}, !- Outside Boundary Condition Object
  NoSun,                                  !- Sun Exposure
  NoWind,                                 !- Wind Exposure
  ,                                       !- View Factor to Ground
  ,                                       !- Number of Vertices
  4.572, 14.9352, 7.3152,                 !- X,Y,Z Vertex 1 {m}
  4.572, 9.4488, 7.3152,                  !- X,Y,Z Vertex 2 {m}
  4.572, 9.4488, 3.6576,                  !- X,Y,Z Vertex 3 {m}
  4.572, 14.9352, 3.6576;                 !- X,Y,Z Vertex 4 {m}

OS:Surface,
  {b6b94bfd-8c2b-46f6-a202-543c432120dd}, !- Handle
  Face 177,                               !- Name
  RoofCeiling,                            !- Surface Type
  ,                                       !- Construction Name
  {8f5da31b-5982-4f61-a764-7e1ad079fcb1}, !- Space Name
  Outdoors,                               !- Outside Boundary Condition
  ,                                       !- Outside Boundary Condition Object
  SunExposed,                             !- Sun Exposure
  WindExposed,                            !- Wind Exposure
  ,                                       !- View Factor to Ground
  ,                                       !- Number of Vertices
  0, 0, 7.3152,                           !- X,Y,Z Vertex 1 {m}
  4.572, 4.572, 7.3152,                   !- X,Y,Z Vertex 2 {m}
  4.572, 9.4488, 7.3152,                  !- X,Y,Z Vertex 3 {m}
  4.572, 14.9352, 7.3152,                 !- X,Y,Z Vertex 4 {m}
  4.572, 19.812, 7.3152,                  !- X,Y,Z Vertex 5 {m}
  0, 24.384, 7.3152;                      !- X,Y,Z Vertex 6 {m}

OS:SpaceType,
  {eab063cb-9ba8-4008-9dab-c8acb72b5b12}, !- Handle
  Open Office,                            !- Name
  ,                                       !- Default Construction Set Name
  ,                                       !- Default Schedule Set Name
  {4be9506d-48e9-471a-bf2f-905f0ce56466}; !- Group Rendering Name

OS:Rendering:Color,
  {4be9506d-48e9-471a-bf2f-905f0ce56466}, !- Handle
  Rendering Color 1,                      !- Name
  167,                                    !- Rendering Red Value
  169,                                    !- Rendering Green Value
  169;                                    !- Rendering Blue Value

OS:BuildingStory,
  {f9862944-9b08-4a4b-9404-38119b05f3cf}, !- Handle
  Story 2,                                !- Name
  3.6576,                                 !- Nominal Z Coordinate {m}
  3.6576,                                 !- Nominal Floor to Floor Height {m}
  ,                                       !- Default Construction Set Name
  ,                                       !- Default Schedule Set Name
  {abe09bad-6e08-49f4-a77c-8a5ff9b2c377}, !- Group Rendering Name
  3.6576;                                 !- Nominal Floor to Ceiling Height {m}

OS:Rendering:Color,
  {abe09bad-6e08-49f4-a77c-8a5ff9b2c377}, !- Handle
  Rendering Color 2,                      !- Name
  51,                                     !- Rendering Red Value
  34,                                     !- Rendering Green Value
  136;                                    !- Rendering Blue Value

OS:Space,
  {844b0eea-1266-4456-a69f-98d8a66d8f37}, !- Handle
  Space 108,                              !- Name
  {481040f9-88e2-4daf-9ff4-58e642f6166e}, !- Space Type Name
  ,                                       !- Default Construction Set Name
  ,                                       !- Default Schedule Set Name
  ,                                       !- Direction of Relative North {deg}
  ,                                       !- X Origin {m}
  ,                                       !- Y Origin {m}
  ,                                       !- Z Origin {m}
  {607fb666-8584-4a70-a29f-eb3d21057dbe}, !- Building Story Name
  ,                                       !- Thermal Zone Name
  ,                                       !- Part of Total Floor Area
  ,                                       !- Design Specification Outdoor Air Object Name
  ;                                       !- Building Unit Name

OS:Surface,
  {b79e4743-51ab-46f8-a547-801252796796}, !- Handle
  Face 46,                                !- Name
  Floor,                                  !- Surface Type
  ,                                       !- Construction Name
  {844b0eea-1266-4456-a69f-98d8a66d8f37}, !- Space Name
  Ground,                                 !- Outside Boundary Condition
  ,                                       !- Outside Boundary Condition Object
  NoSun,                                  !- Sun Exposure
  NoWind,                                 !- Wind Exposure
  ,                                       !- View Factor to Ground
  ,                                       !- Number of Vertices
  14.6304, 19.812, 0,                     !- X,Y,Z Vertex 1 {m}
  14.6304, 15.24, 0,                      !- X,Y,Z Vertex 2 {m}
  14.6304, 12.192, 0,                     !- X,Y,Z Vertex 3 {m}
  14.6304, 7.62, 0,                       !- X,Y,Z Vertex 4 {m}
  14.6304, 4.572, 0,                      !- X,Y,Z Vertex 5 {m}
  11.5824, 4.572, 0,                      !- X,Y,Z Vertex 6 {m}
  11.5824, 9.4488, 0,                     !- X,Y,Z Vertex 7 {m}
  11.5824, 14.9352, 0,                    !- X,Y,Z Vertex 8 {m}
  11.5824, 19.812, 0;                     !- X,Y,Z Vertex 9 {m}

OS:Surface,
  {a94d99e3-9099-48c1-86b5-460b493a4da2}, !- Handle
  Face 52,                                !- Name
  Wall,                                   !- Surface Type
  ,                                       !- Construction Name
  {844b0eea-1266-4456-a69f-98d8a66d8f37}, !- Space Name
  Surface,                                !- Outside Boundary Condition
  {c8ac0dd7-8ea3-4f9b-8c94-bd6d1706ebcc}, !- Outside Boundary Condition Object
  NoSun,                                  !- Sun Exposure
  NoWind,                                 !- Wind Exposure
  ,                                       !- View Factor to Ground
  ,                                       !- Number of Vertices
  14.6304, 4.572, 3.6576,                 !- X,Y,Z Vertex 1 {m}
  11.5824, 4.572, 3.6576,                 !- X,Y,Z Vertex 2 {m}
  11.5824, 4.572, 0,                      !- X,Y,Z Vertex 3 {m}
  14.6304, 4.572, 0;                      !- X,Y,Z Vertex 4 {m}

OS:Surface,
  {0967d540-65bd-467c-8f3a-ac656a491695}, !- Handle
  Face 48,                                !- Name
  Wall,                                   !- Surface Type
  ,                                       !- Construction Name
  {844b0eea-1266-4456-a69f-98d8a66d8f37}, !- Space Name
  Surface,                                !- Outside Boundary Condition
  {0a255d5a-c525-42c4-917a-ef9afa45e179}, !- Outside Boundary Condition Object
  NoSun,                                  !- Sun Exposure
  NoWind,                                 !- Wind Exposure
  ,                                       !- View Factor to Ground
  ,                                       !- Number of Vertices
  14.6304, 19.812, 3.6576,                !- X,Y,Z Vertex 1 {m}
  14.6304, 15.24, 3.6576,                 !- X,Y,Z Vertex 2 {m}
  14.6304, 15.24, 0,                      !- X,Y,Z Vertex 3 {m}
  14.6304, 19.812, 0;                     !- X,Y,Z Vertex 4 {m}

OS:Surface,
  {cf0ae833-838d-4256-a001-64d814f14740}, !- Handle
  Face 50,                                !- Name
  Wall,                                   !- Surface Type
  ,                                       !- Construction Name
  {844b0eea-1266-4456-a69f-98d8a66d8f37}, !- Space Name
  Surface,                                !- Outside Boundary Condition
  {cb2c29f2-e885-48c2-870a-2bedc6b7613a}, !- Outside Boundary Condition Object
  NoSun,                                  !- Sun Exposure
  NoWind,                                 !- Wind Exposure
  ,                                       !- View Factor to Ground
  ,                                       !- Number of Vertices
  14.6304, 12.192, 3.6576,                !- X,Y,Z Vertex 1 {m}
  14.6304, 7.62, 3.6576,                  !- X,Y,Z Vertex 2 {m}
  14.6304, 7.62, 0,                       !- X,Y,Z Vertex 3 {m}
  14.6304, 12.192, 0;                     !- X,Y,Z Vertex 4 {m}

OS:Surface,
  {b98c5b56-a972-4832-8750-3fa03207535a}, !- Handle
  Face 56,                                !- Name
  Wall,                                   !- Surface Type
  ,                                       !- Construction Name
  {844b0eea-1266-4456-a69f-98d8a66d8f37}, !- Space Name
  Surface,                                !- Outside Boundary Condition
  {2c756358-3624-46ee-b769-dfe11dc8a630}, !- Outside Boundary Condition Object
  NoSun,                                  !- Sun Exposure
  NoWind,                                 !- Wind Exposure
  ,                                       !- View Factor to Ground
  ,                                       !- Number of Vertices
  11.5824, 19.812, 3.6576,                !- X,Y,Z Vertex 1 {m}
  14.6304, 19.812, 3.6576,                !- X,Y,Z Vertex 2 {m}
  14.6304, 19.812, 0,                     !- X,Y,Z Vertex 3 {m}
  11.5824, 19.812, 0;                     !- X,Y,Z Vertex 4 {m}

OS:Surface,
  {67d2fe56-b3a4-4dec-a8d3-b3575626b13c}, !- Handle
  Face 51,                                !- Name
  Wall,                                   !- Surface Type
  ,                                       !- Construction Name
  {844b0eea-1266-4456-a69f-98d8a66d8f37}, !- Space Name
  Surface,                                !- Outside Boundary Condition
  {917a3419-bb8b-4dae-bea6-a02df3b29ec1}, !- Outside Boundary Condition Object
  NoSun,                                  !- Sun Exposure
  NoWind,                                 !- Wind Exposure
  ,                                       !- View Factor to Ground
  ,                                       !- Number of Vertices
  14.6304, 7.62, 3.6576,                  !- X,Y,Z Vertex 1 {m}
  14.6304, 4.572, 3.6576,                 !- X,Y,Z Vertex 2 {m}
  14.6304, 4.572, 0,                      !- X,Y,Z Vertex 3 {m}
  14.6304, 7.62, 0;                       !- X,Y,Z Vertex 4 {m}

OS:Surface,
  {48ee5fdc-6ff9-4f29-b6de-aae90ab56fa3}, !- Handle
  Face 53,                                !- Name
  Wall,                                   !- Surface Type
  ,                                       !- Construction Name
  {844b0eea-1266-4456-a69f-98d8a66d8f37}, !- Space Name
  Surface,                                !- Outside Boundary Condition
  {0a6bf9bf-6d77-48ac-9eed-3f399b6b53d7}, !- Outside Boundary Condition Object
  NoSun,                                  !- Sun Exposure
  NoWind,                                 !- Wind Exposure
  ,                                       !- View Factor to Ground
  ,                                       !- Number of Vertices
  11.5824, 4.572, 3.6576,                 !- X,Y,Z Vertex 1 {m}
  11.5824, 9.4488, 3.6576,                !- X,Y,Z Vertex 2 {m}
  11.5824, 9.4488, 0,                     !- X,Y,Z Vertex 3 {m}
  11.5824, 4.572, 0;                      !- X,Y,Z Vertex 4 {m}

OS:Surface,
  {16b0c474-0e9e-4351-b699-8f082abf577c}, !- Handle
  Face 55,                                !- Name
  Wall,                                   !- Surface Type
  ,                                       !- Construction Name
  {844b0eea-1266-4456-a69f-98d8a66d8f37}, !- Space Name
  Surface,                                !- Outside Boundary Condition
  {25c0f75e-30e9-4087-bda2-15525342a387}, !- Outside Boundary Condition Object
  NoSun,                                  !- Sun Exposure
  NoWind,                                 !- Wind Exposure
  ,                                       !- View Factor to Ground
  ,                                       !- Number of Vertices
  11.5824, 14.9352, 3.6576,               !- X,Y,Z Vertex 1 {m}
  11.5824, 19.812, 3.6576,                !- X,Y,Z Vertex 2 {m}
  11.5824, 19.812, 0,                     !- X,Y,Z Vertex 3 {m}
  11.5824, 14.9352, 0;                    !- X,Y,Z Vertex 4 {m}

OS:Surface,
  {1a634ca7-36e3-43bd-aafd-9b9a45415fba}, !- Handle
  Face 47,                                !- Name
  RoofCeiling,                            !- Surface Type
  ,                                       !- Construction Name
  {844b0eea-1266-4456-a69f-98d8a66d8f37}, !- Space Name
  Surface,                                !- Outside Boundary Condition
  {c7c874b1-bb9e-4fdd-be36-5facbe2bf50a}, !- Outside Boundary Condition Object
  NoSun,                                  !- Sun Exposure
  NoWind,                                 !- Wind Exposure
  ,                                       !- View Factor to Ground
  ,                                       !- Number of Vertices
  11.5824, 19.812, 3.6576,                !- X,Y,Z Vertex 1 {m}
  11.5824, 14.9352, 3.6576,               !- X,Y,Z Vertex 2 {m}
  11.5824, 9.4488, 3.6576,                !- X,Y,Z Vertex 3 {m}
  11.5824, 4.572, 3.6576,                 !- X,Y,Z Vertex 4 {m}
  14.6304, 4.572, 3.6576,                 !- X,Y,Z Vertex 5 {m}
  14.6304, 7.62, 3.6576,                  !- X,Y,Z Vertex 6 {m}
  14.6304, 12.192, 3.6576,                !- X,Y,Z Vertex 7 {m}
  14.6304, 15.24, 3.6576,                 !- X,Y,Z Vertex 8 {m}
  14.6304, 19.812, 3.6576;                !- X,Y,Z Vertex 9 {m}

OS:Surface,
  {60aa8e5e-9d82-4f04-b96c-4b5c6e2a90ee}, !- Handle
  Face 54,                                !- Name
  Wall,                                   !- Surface Type
  ,                                       !- Construction Name
  {844b0eea-1266-4456-a69f-98d8a66d8f37}, !- Space Name
  Surface,                                !- Outside Boundary Condition
  {ff33a513-da4c-4ed7-b2bf-c4ac435f051f}, !- Outside Boundary Condition Object
  NoSun,                                  !- Sun Exposure
  NoWind,                                 !- Wind Exposure
  ,                                       !- View Factor to Ground
  ,                                       !- Number of Vertices
  11.5824, 9.4488, 3.6576,                !- X,Y,Z Vertex 1 {m}
  11.5824, 14.9352, 3.6576,               !- X,Y,Z Vertex 2 {m}
  11.5824, 14.9352, 0,                    !- X,Y,Z Vertex 3 {m}
  11.5824, 9.4488, 0;                     !- X,Y,Z Vertex 4 {m}

OS:Surface,
  {76fe738c-d8f7-458d-8365-92f0db0b2851}, !- Handle
  Face 49,                                !- Name
  Wall,                                   !- Surface Type
  ,                                       !- Construction Name
  {844b0eea-1266-4456-a69f-98d8a66d8f37}, !- Space Name
  Surface,                                !- Outside Boundary Condition
  {18a2a812-4dda-45ab-b7fc-d01ccd9b1995}, !- Outside Boundary Condition Object
  NoSun,                                  !- Sun Exposure
  NoWind,                                 !- Wind Exposure
  ,                                       !- View Factor to Ground
  ,                                       !- Number of Vertices
  14.6304, 15.24, 3.6576,                 !- X,Y,Z Vertex 1 {m}
  14.6304, 12.192, 3.6576,                !- X,Y,Z Vertex 2 {m}
  14.6304, 12.192, 0,                     !- X,Y,Z Vertex 3 {m}
  14.6304, 15.24, 0;                      !- X,Y,Z Vertex 4 {m}

OS:SpaceType,
  {481040f9-88e2-4daf-9ff4-58e642f6166e}, !- Handle
  Corridor,                               !- Name
  ,                                       !- Default Construction Set Name
  ,                                       !- Default Schedule Set Name
  {bf0638ea-1f4a-40f1-b9ff-14b3c4c106c2}; !- Group Rendering Name

OS:Rendering:Color,
  {bf0638ea-1f4a-40f1-b9ff-14b3c4c106c2}, !- Handle
  Rendering Color 3,                      !- Name
  173,                                    !- Rendering Red Value
  255,                                    !- Rendering Green Value
  47;                                     !- Rendering Blue Value

OS:BuildingStory,
  {607fb666-8584-4a70-a29f-eb3d21057dbe}, !- Handle
  Story 1,                                !- Name
  0,                                      !- Nominal Z Coordinate {m}
  3.6576,                                 !- Nominal Floor to Floor Height {m}
  ,                                       !- Default Construction Set Name
  ,                                       !- Default Schedule Set Name
  {9d77f3c4-dbc8-4460-9d2f-0fcd5ef1b7fb}, !- Group Rendering Name
  3.6576;                                 !- Nominal Floor to Ceiling Height {m}

OS:Rendering:Color,
  {9d77f3c4-dbc8-4460-9d2f-0fcd5ef1b7fb}, !- Handle
  Rendering Color 4,                      !- Name
  136,                                    !- Rendering Red Value
  204,                                    !- Rendering Green Value
  238;                                    !- Rendering Blue Value

OS:Space,
  {f599c192-a1da-48a5-a877-f6d8ad7e7008}, !- Handle
  Space 101,                              !- Name
  {eab063cb-9ba8-4008-9dab-c8acb72b5b12}, !- Space Type Name
  ,                                       !- Default Construction Set Name
  ,                                       !- Default Schedule Set Name
  ,                                       !- Direction of Relative North {deg}
  ,                                       !- X Origin {m}
  ,                                       !- Y Origin {m}
  ,                                       !- Z Origin {m}